<?xml version="1.0" encoding="UTF-8"?>

<!-- generated on 2024-04-17 14:42:47 by Eclipse SUMO netconvert Version 1.19.0
<configuration xmlns:xsi="http://www.w3.org/2001/XMLSchema-instance" xsi:noNamespaceSchemaLocation="http://sumo.dlr.de/xsd/netconvertConfiguration.xsd">

    <input>
        <opendrive-files value="/Users/zhenyi/git_repo/dev/isetauto/data/scenes/road/road_015/road_015.xodr"/>
    </input>

    <output>
        <output-file value="/Users/zhenyi/git_repo/dev/isetauto/data/scenes/road/road_015/road_15.net.xml"/>
    </output>

    <junctions>
        <no-turnarounds.except-deadend value="true"/>
    </junctions>

</configuration>
-->

<net version="1.16" junctionCornerDetail="5" rectangularLaneCut="true" limitTurnSpeed="5.50" xmlns:xsi="http://www.w3.org/2001/XMLSchema-instance" xsi:noNamespaceSchemaLocation="http://sumo.dlr.de/xsd/net_file.xsd">

    <location netOffset="200.98,26.35" convBoundary="0.00,0.00,395.98,44.57" origBoundary="-200.98,-26.35,195.00,18.22" projParameter="!"/>

    <type id="driving" priority="1" speed="13.89" disallow="pedestrian tram rail_urban rail rail_electric rail_fast ship" width="3.65"/>

    <edge id=":1.begin_0" function="internal">
        <lane id=":1.begin_0_0" index="0" disallow="pedestrian tram rail_urban rail rail_electric rail_fast ship" speed="3.82" length="5.11" width="3.50" shape="-0.29,30.19 -1.44,29.10 -1.73,28.17 -1.15,27.38 0.29,26.73"/>
    </edge>
    <edge id=":1.end_0" function="internal">
        <lane id=":1.end_0_0" index="0" disallow="pedestrian tram rail_urban rail rail_electric rail_fast ship" speed="3.82" length="5.11" width="3.50" shape="395.61,-1.71 397.08,-1.13 397.69,-0.37 397.45,0.58 396.35,1.71"/>
    </edge>

    <edge id="-1" from="1.begin" to="1.end" priority="1" type="driving" shape="0.00,28.46 52.52,37.43 54.50,37.76 56.47,38.09 58.44,38.41 60.42,38.71 62.40,39.02 64.38,39.31 66.36,39.59 68.34,39.87 70.32,40.14 72.30,40.40 74.28,40.66 76.27,40.90 78.26,41.14 80.24,41.37 82.23,41.59 84.22,41.81 86.21,42.01 88.20,42.21 90.19,42.40 92.18,42.58 94.17,42.76 96.17,42.92 98.16,43.08 100.15,43.23 102.15,43.37 104.14,43.51 106.14,43.63 108.14,43.75 110.13,43.86 112.13,43.96 114.13,44.06 116.13,44.14 118.13,44.22 120.12,44.29 122.12,44.36 124.12,44.41 126.12,44.46 128.12,44.49 130.12,44.53 132.12,44.55 134.12,44.56 136.12,44.57 138.12,44.57 140.12,44.56 142.12,44.54 144.12,44.51 146.12,44.48 148.12,44.44 150.12,44.39 152.12,44.33 154.12,44.27 156.12,44.19 158.11,44.11 160.11,44.02 162.11,43.92 164.11,43.82 166.10,43.70 168.10,43.58 170.10,43.45 172.09,43.31 174.09,43.17 176.08,43.02 178.07,42.85 180.07,42.68 182.06,42.51 184.05,42.32 186.04,42.13 188.03,41.93 190.02,41.72 192.01,41.50 193.99,41.28 195.98,41.04 197.97,40.80 199.95,40.55 201.93,40.30 203.92,40.03 205.90,39.76 207.88,39.48 209.86,39.19 211.84,38.89 213.81,38.59 215.79,38.27 217.76,37.95 219.73,37.63 221.71,37.29 223.68,36.95 225.65,36.59 227.61,36.23 229.58,35.87 231.54,35.49 233.51,35.11 235.47,34.72 237.43,34.32 239.39,33.91 241.34,33.50 242.56,33.23 395.98,0.00">
        <lane id="-1_0" index="0" disallow="pedestrian tram rail_urban rail rail_electric rail_fast ship" speed="24.59" length="400.84" width="3.50" shape="0.29,26.73 52.82,35.71 54.78,36.04 56.75,36.36 58.72,36.68 60.69,36.99 62.66,37.29 64.63,37.58 66.60,37.86 68.58,38.14 70.55,38.41 72.53,38.67 74.50,38.92 76.48,39.17 78.46,39.40 80.44,39.63 82.42,39.85 84.40,40.07 86.38,40.27 88.37,40.47 90.35,40.66 92.34,40.84 94.32,41.01 96.31,41.18 98.29,41.34 100.28,41.49 102.27,41.63 104.26,41.76 106.25,41.89 108.24,42.00 110.23,42.11 112.22,42.22 114.21,42.31 116.20,42.40 118.19,42.47 120.18,42.54 122.17,42.61 124.17,42.66 126.16,42.71 128.15,42.75 130.14,42.78 132.14,42.80 134.13,42.81 136.12,42.82 138.12,42.82 140.11,42.81 142.10,42.79 144.09,42.76 146.09,42.73 148.08,42.69 150.07,42.64 152.06,42.58 154.06,42.52 156.05,42.44 158.04,42.36 160.03,42.27 162.02,42.18 164.01,42.07 166.00,41.96 167.99,41.84 169.98,41.71 171.97,41.57 173.96,41.42 175.94,41.27 177.93,41.11 179.91,40.94 181.90,40.76 183.88,40.58 185.87,40.39 187.85,40.19 189.83,39.98 191.81,39.76 193.79,39.54 195.77,39.30 197.75,39.06 199.73,38.82 201.71,38.56 203.68,38.30 205.66,38.02 207.63,37.74 209.60,37.46 211.57,37.16 213.54,36.86 215.51,36.55 217.48,36.23 219.44,35.90 221.41,35.57 223.37,35.22 225.33,34.87 227.29,34.51 229.25,34.15 231.21,33.77 233.17,33.39 235.12,33.00 237.07,32.60 239.03,32.20 240.98,31.79 242.19,31.52 395.61,-1.71" type="driving"/>
    </edge>
    <edge id="1" from="1.end" to="1.begin" priority="1" type="driving" shape="395.98,0.00 242.56,33.23 241.34,33.50 239.39,33.91 237.43,34.32 235.47,34.72 233.51,35.11 231.54,35.49 229.58,35.87 227.61,36.23 225.65,36.59 223.68,36.95 221.71,37.29 219.73,37.63 217.76,37.95 215.79,38.27 213.81,38.59 211.84,38.89 209.86,39.19 207.88,39.48 205.90,39.76 203.92,40.03 201.93,40.30 199.95,40.55 197.97,40.80 195.98,41.04 193.99,41.28 192.01,41.50 190.02,41.72 188.03,41.93 186.04,42.13 184.05,42.32 182.06,42.51 180.07,42.68 178.07,42.85 176.08,43.02 174.09,43.17 172.09,43.31 170.10,43.45 168.10,43.58 166.10,43.70 164.11,43.82 162.11,43.92 160.11,44.02 158.11,44.11 156.12,44.19 154.12,44.27 152.12,44.33 150.12,44.39 148.12,44.44 146.12,44.48 144.12,44.51 142.12,44.54 140.12,44.56 138.12,44.57 136.12,44.57 134.12,44.56 132.12,44.55 130.12,44.53 128.12,44.49 126.12,44.46 124.12,44.41 122.12,44.36 120.12,44.29 118.13,44.22 116.13,44.14 114.13,44.06 112.13,43.96 110.13,43.86 108.14,43.75 106.14,43.63 104.14,43.51 102.15,43.37 100.15,43.23 98.16,43.08 96.17,42.92 94.17,42.76 92.18,42.58 90.19,42.40 88.20,42.21 86.21,42.01 84.22,41.81 82.23,41.59 80.24,41.37 78.26,41.14 76.27,40.90 74.28,40.66 72.30,40.40 70.32,40.14 68.34,39.87 66.36,39.59 64.38,39.31 62.40,39.02 60.42,38.71 58.44,38.41 56.47,38.09 54.50,37.76 52.52,37.43 0.00,28.46">
        <lane id="1_0" index="0" disallow="pedestrian tram rail_urban rail rail_electric rail_fast ship" speed="24.59" length="402.18" width="3.50" shape="396.35,1.71 242.93,34.94 241.71,35.21 239.74,35.62 237.78,36.03 235.81,36.43 233.84,36.83 231.87,37.21 229.90,37.59 227.93,37.96 225.96,38.32 223.98,38.67 222.00,39.01 220.03,39.35 218.05,39.68 216.06,40.00 214.08,40.32 212.10,40.62 210.11,40.92 208.13,41.21 206.14,41.49 204.15,41.76 202.16,42.03 200.17,42.29 198.18,42.54 196.19,42.78 194.20,43.01 192.20,43.24 190.21,43.46 188.21,43.67 186.21,43.87 184.22,44.06 182.22,44.25 180.22,44.43 178.22,44.60 176.22,44.76 174.22,44.91 172.22,45.06 170.21,45.20 168.21,45.33 166.21,45.45 164.20,45.56 162.20,45.67 160.19,45.77 158.19,45.86 156.18,45.94 154.18,46.01 152.17,46.08 150.17,46.14 148.16,46.19 146.15,46.23 144.15,46.26 142.14,46.29 140.13,46.31 138.13,46.32 136.12,46.32 134.11,46.31 132.11,46.30 130.10,46.28 128.09,46.24 126.08,46.21 124.08,46.16 122.07,46.11 120.07,46.04 118.06,45.97 116.05,45.89 114.05,45.81 112.04,45.71 110.04,45.61 108.04,45.50 106.03,45.38 104.03,45.25 102.03,45.12 100.03,44.98 98.02,44.83 96.02,44.67 94.02,44.50 92.02,44.33 90.03,44.14 88.03,43.95 86.03,43.75 84.03,43.55 82.04,43.33 80.04,43.11 78.05,42.88 76.06,42.64 74.07,42.39 72.08,42.14 70.09,41.88 68.10,41.61 66.11,41.33 64.12,41.04 62.14,40.75 60.15,40.44 58.17,40.13 56.19,39.82 54.21,39.49 52.23,39.16 -0.29,30.19" type="driving"/>
    </edge>

    <junction id="1.begin" type="priority" x="0.00" y="28.46" incLanes="1_0" intLanes=":1.begin_0_0" shape="-0.00,28.46 -0.59,31.91 -0.00,28.46">
        <request index="0" response="0" foes="0" cont="0"/>
    </junction>
    <junction id="1.end" type="priority" x="395.98" y="0.00" incLanes="-1_0" intLanes=":1.end_0_0" shape="395.98,-0.00 395.24,-3.42 395.98,-0.00">
        <request index="0" response="0" foes="0" cont="0"/>
    </junction>

    <connection from="-1" to="1" fromLane="0" toLane="0" via=":1.end_0_0" dir="t" state="M"/>
    <connection from="1" to="-1" fromLane="0" toLane="0" via=":1.begin_0_0" dir="t" state="M"/>

    <connection from=":1.begin_0" to="-1" fromLane="0" toLane="0" dir="t" state="M"/>
    <connection from=":1.end_0" to="1" fromLane="0" toLane="0" dir="t" state="M"/>

</net>
